


                                __________________________________________
                               |                                          |
                               | NUMERICAL ELECTROMAGNETICS CODE (nec2++) |
                               | Implemented in 'C++' in Double Precision |
                               |        Version 1.7.4 [2018-03-23]        |
                               |__________________________________________|



                               ---------------- COMMENTS ----------------
                                Half-wavelength dipole 915MHz
                               



                                -------- STRUCTURE SPECIFICATION --------
                                COORDINATES MUST BE INPUT IN
                                METERS OR BE SCALED TO METERS
                                BEFORE STRUCTURE INPUT IS ENDED
  WIRE                                                                                 SEG FIRST  LAST  TAG
   No:        X1         Y1         Z1         X2         Y2         Z2       RADIUS   No:   SEG   SEG  No:

     1      0.0000    -0.5350     0.0000     0.0000     0.5350     0.0000     0.0010     9     1     9    1

     TOTAL SEGMENTS USED: 9   SEGMENTS IN A SYMMETRIC CELL: 9   SYMMETRY FLAG: 0


                               ---------- SEGMENTATION DATA ----------
                                        COORDINATES IN METERS
                            I+ AND I- INDICATE THE SEGMENTS BEFORE AND AFTER I

   SEG    COORDINATES OF SEGM CENTER     SEGM    ORIENTATION ANGLES    WIRE    CONNECTION DATA   TAG
   No:       X         Y         Z      LENGTH     ALPHA      BETA    RADIUS    I-     I    I+   NO:
     1    0.0000   -0.4756    0.0000    0.1189    0.0000   90.0000    0.0010     0     1     2     1
     2    0.0000   -0.3567    0.0000    0.1189    0.0000   90.0000    0.0010     1     2     3     1
     3    0.0000   -0.2378    0.0000    0.1189    0.0000   90.0000    0.0010     2     3     4     1
     4    0.0000   -0.1189    0.0000    0.1189    0.0000   90.0000    0.0010     3     4     5     1
     5    0.0000   -0.0000    0.0000    0.1189    0.0000   90.0000    0.0010     4     5     6     1
     6    0.0000    0.1189    0.0000    0.1189    0.0000   90.0000    0.0010     5     6     7     1
     7    0.0000    0.2378    0.0000    0.1189    0.0000   90.0000    0.0010     6     7     8     1
     8    0.0000    0.3567    0.0000    0.1189    0.0000   90.0000    0.0010     7     8     9     1
     9    0.0000    0.4756    0.0000    0.1189    0.0000   90.0000    0.0010     8     9     0     1



*****  DATA CARD N0.   1 EX   0     1     5     0  1.00000E+01  0.00000E+00  0.00000E+00  0.00000E+00  0.00000E+00  0.00000E+00
*****  DATA CARD N0.   2 FR   0   100     0     0  1.00000E+02  1.00000E+01  0.00000E+00  0.00000E+00  0.00000E+00  0.00000E+00
*****  DATA CARD N0.   3 EN   0     0     0     0  0.00000E+00  0.00000E+00  0.00000E+00  0.00000E+00  0.00000E+00  0.00000E+00

  TOTAL RUN TIME: 0 msec